LTspice 24.0.9 for Windows
Circuit: * C:\Users\xfalc\OneDrive\Área de Trabalho\asdqwe\quadriplas\ltspice\minhalinha.asc
Start Time: Sun May 12 13:01:04 2024
solver = Normal
Maximum thread count: 6
tnom = 27
temp = 27
method = modified trap
.OP point found by inspection.
Heightened Def Con from 1.64025e-07 to 1.68025e-07
Total elapsed time: 0.285 seconds.

